Circuit: * C:\Users\Alienware\Desktop\LorisBurnWire\LTSpice Sim\Timer.asc

Direct Newton iteration failed to find .op point.  (Use ".option noopiter" to skip.)
Starting Gmin stepping
Gmin = 10
Gmin = 1.07374
Gmin = 0.115292
Gmin = 0.0123794
Gmin = 0.00132923
Gmin = 0.000142725
vernier = 0.5
vernier = 0.25
Gmin = 4.89078e-005
vernier = 0.125
vernier = 0.0625
vernier = 0.03125
vernier = 0.015625
Gmin = 4.72412e-005
vernier = 0.0078125
vernier = 0.00390625
vernier = 0.00520833
Gmin = 4.70722e-005
vernier = 0.00694444
Gmin = 4.63429e-005
vernier = 0.00925925
vernier = 0.0123457
Gmin = 4.51446e-005
vernier = 0.0164609
vernier = 0.0219478
Gmin = 4.32987e-005
vernier = 0.0292638
Gmin = 4.05485e-005
vernier = 0.0390184
vernier = 0.0520245
Gmin = 3.63271e-005
vernier = 0.0693659
vernier = 0.0924879
Gmin = 3.05036e-005
vernier = 0.123317
Gmin = 2.32018e-005
vernier = 0.164423
vernier = 0.21923
Gmin = 1.47184e-005
vernier = 0.292307
vernier = 0.389743
Gmin = 7.19399e-006
vernier = 0.519657
Gmin = 2.38331e-006
vernier = 0.692876
vernier = 0.923834
Gmin = 3.98046e-007
vernier = 1
Gmin = 4.40723e-008
Gmin = 4.73223e-009
Gmin = 5.08119e-010
Gmin = 5.45589e-011
Gmin = 5.85822e-012
Gmin = 6.29021e-013
Gmin = 0
Gmin stepping succeeded in finding the operating point.

Changing Tseed to 1e-008
Changing Tseed to 1e-010
Changing Tseed to 1e-007
Changing Tseed to 1e-011
Changing Tseed to 1e-006
Changing Tseed to 1e-012
Heightened Def Con from 5.69878e-009 to 8.69878e-009
Heightened Def Con from 5.00001e-007 to 5.00001e-007
Heightened Def Con from 5.00001e-007 to 5.00001e-007
Heightened Def Con from 5.00001e-007 to 5.00001e-007
Heightened Def Con from 5.00001e-007 to 5.00001e-007
Heightened Def Con from 5.00001e-007 to 5.00001e-007
Heightened Def Con from 5.00001e-007 to 5.00001e-007
Heightened Def Con from 5.00001e-007 to 5.00001e-007
Heightened Def Con from 5.00001e-007 to 5.00001e-007
Heightened Def Con from 5.00001e-007 to 5.00001e-007
Heightened Def Con from 5.00001e-007 to 5.00001e-007
Heightened Def Con from 5.00001e-007 to 5.00001e-007
Heightened Def Con from 5.00001e-007 +to 5.00001e-007
Heightened Def Con from 5.00001e-007 to 5.00001e-007
Heightened Def Con from 5.00001e-007 to 5.00001e-007
Heightened Def Con from 5.00001e-007 to 5.00001e-007
Heightened Def Con from 5.00001e-007 to 5.00001e-007
Heightened Def Con from 5.00001e-007 to 5.00001e-007
Heightened Def Con from 5.00001e-007 to 5.00001e-007
Heightened Def Con from 5.00001e-007 ++to 5.00001e-007
Heightened Def Con from 5.00001e-007 +to 5.00001e-007
Heightened Def Con from 5.00001e-007 +to 5.00001e-007
Heightened Def Con from 5.00001e-007 to 5.00001e-007
Heightened Def Con from 3.14981e-006 to 3.14981e-006
Heightened Def Con from 3.14981e-006 to 3.14981e-006
Heightened Def Con from 3.14981e-006 to 3.14981e-006
Heightened Def Con from 3.14981e-006 to 3.14981e-006
Heightened Def Con from 3.14981e-006 to 3.14981e-006
Heightened Def Con from 3.14981e-006 to 3.14981e-006
Heightened Def Con from 3.14981e-006 to 3.14981e-006
Heightened Def Con from 3.14981e-006 to 3.14981e-006
Heightened Def Con from 3.14981e-006 ++++to 3.14981e-006
Heightened Def Con from 3.14981e-006 to 3.14981e-006
Heightened Def Con from 3.14981e-006 to 3.14981e-006
Heightened Def Con from 3.14981e-006 ++++to 3.14981e-006
Heightened Def Con from 3.14981e-006 to 3.14981e-006
Heightened Def Con from 3.14981e-006 to 3.14981e-006
Heightened Def Con from 3.14981e-006 to 3.14981e-006
Heightened Def Con from 3.14981e-006 to 3.14981e-006
Heightened Def Con from 3.14981e-006 to 3.14981e-006
Heightened Def Con from 3.14981e-006 to 3.14981e-006
Heightened Def Con from 3.14981e-006 to 3.14981e-006
Heightened Def Con from 3.14981e-006 to 3.14981e-006
Heightened Def Con from 3.14981e-006 to 3.14981e-006
Heightened Def Con from 3.14981e-006 to 3.14981e-006
Heightened Def Con from 3.14981e-006 ++to 3.14981e-006
Heightened Def Con from 3.14981e-006 +to 3.14981e-006
Heightened Def Con from 3.14981e-006 to 3.14981e-006
Heightened Def Con from 3.14981e-006 to 3.14981e-006
Heightened Def Con from 3.14981e-006 to 3.14981e-006
Heightened Def Con from 3.14981e-006 to 3.14981e-006
Heightened Def Con from 3.14981e-006 to 3.14981e-006
Heightened Def Con from 3.14981e-006 to 3.14981e-006
Heightened Def Con from 3.14981e-006 to 3.14981e-006
Heightened Def Con from 3.14981e-006 ++++++to 3.14981e-006
Heightened Def Con from 3.14981e-006 to 3.14981e-006
Heightened Def Con from 3.14981e-006 to 3.14981e-006
Heightened Def Con from 3.14981e-006 to 3.14981e-006
Heightened Def Con from 3.14981e-006 +to 3.14981e-006
Heightened Def Con from 3.14981e-006 to 3.14981e-006
Heightened Def Con from 3.14981e-006 to 3.14981e-006
Heightened Def Con from 3.14981e-006 to 3.14981e-006
Heightened Def Con from 0.00297644 to 0.00297644
Heightened Def Con from 1890.49 to 1890.49
Heightened Def Con from 1920.48 to 1920.48
Heightened Def Con from 1920.48 to 1920.48
Heightened Def Con from 1950.47 to 1950.47
Heightened Def Con from 1950.47 to 1950.47
Heightened Def Con from 1980.46 to 1980.46

Date: Fri Jun 05 14:19:19 2020
Total elapsed time: 1.675 seconds.

tnom = 27
temp = 27
method = modified trap
totiter = 27845
traniter = 26291
tranpoints = 5348
accept = 3901
rejected = 1533
matrix size = 270
fillins = 15
solver = Normal
Thread vector: 72.1/37.6[8] 19.1/7.6[8] 21.3/6.5[8] 1.1/2.0[1]  2592/500
Matrix Compiler1: 11.11 KB object code size  4.7/2.7/[2.2]
Matrix Compiler2: 16.50 KB object code size  2.2/3.0/[1.5]

