Circuit: * C:\Users\oestu\Documents\GitHub\Burb-Wire-System\LTSpice Sim\Timer.asc

Direct Newton iteration failed to find .op point.  (Use ".option noopiter" to skip.)
Starting Gmin stepping
Gmin = 10
Gmin = 1.07374
Gmin = 0.115292
Gmin = 0.0123794
Gmin = 0.00132923
Gmin = 0.000142725
vernier = 0.5
vernier = 0.25
Gmin = 4.89078e-005
vernier = 0.125
vernier = 0.0625
vernier = 0.03125
vernier = 0.015625
Gmin = 4.72412e-005
vernier = 0.0078125
vernier = 0.00390625
vernier = 0.00520833
Gmin = 4.70722e-005
vernier = 0.00694444
Gmin = 4.63429e-005
vernier = 0.00925925
vernier = 0.0123457
Gmin = 4.51446e-005
vernier = 0.0164609
vernier = 0.0219478
Gmin = 4.32987e-005
vernier = 0.0292638
Gmin = 4.05485e-005
vernier = 0.0390184
vernier = 0.0520245
Gmin = 3.63271e-005
vernier = 0.0693659
vernier = 0.0924879
Gmin = 3.05036e-005
vernier = 0.123317
Gmin = 2.32018e-005
vernier = 0.164423
vernier = 0.21923
Gmin = 1.47184e-005
vernier = 0.292307
vernier = 0.389743
Gmin = 7.19399e-006
vernier = 0.519657
Gmin = 2.38331e-006
vernier = 0.692876
vernier = 0.923834
Gmin = 3.98046e-007
vernier = 1
Gmin = 4.40723e-008
Gmin = 4.73223e-009
Gmin = 5.08119e-010
Gmin = 5.45589e-011
Gmin = 5.85822e-012
Gmin = 6.29021e-013
Gmin = 0
Gmin stepping succeeded in finding the operating point.

Changing Tseed to 1e-008
Changing Tseed to 1e-010
Changing Tseed to 1e-007
Changing Tseed to 1e-011
Changing Tseed to 1e-006
Changing Tseed to 1e-012
Heightened Def Con from 1920.49 to 1920.49
Heightened Def Con from 1950.48 to 1950.48
Heightened Def Con from 1980.47 to 1980.47

Date: Fri Jun 05 15:20:59 2020
Total elapsed time: 0.663 seconds.

tnom = 27
temp = 27
method = modified trap
totiter = 14446
traniter = 12892
tranpoints = 3977
accept = 3521
rejected = 453
matrix size = 263
fillins = 14
solver = Normal
Thread vector: 41.7/12.2[8] 10.3/4.1[8] 12.3/4.2[8] 1.1/0.8[3]  2592/500
Matrix Compiler1: 10.68 KB object code size  2.7/1.5/[0.6]
Matrix Compiler2: 15.94 KB object code size  1.4/2.2/[0.8]

